Hello Alex!
new line.

dubl line.

triple line.

s site 15:41

s PC 17:28

na sledyuschiy den 12:09
-------------------------------

cherez nedelu 28.11.2019 

cherez nedelu 28.11.2019 12:12

cherez nedelu 28.11.2019 14:27

cherez nedelu 02.12.2019 11:06

