Hello Alex!
new line.

dubl line.

triple line.
