Hello Alex!
new line.

dubl line.

triple line.

s site 15:41
